[TITLE]


[JUNCTIONS]
;ID              	Elev        	Demand      	Pattern         
 DEODATO         	53.32       	52.21       	1               	;
 ALTO_JOSE_BONIFACIO	53.32       	32.75       	1               	;
 4               	45          	0           	3               	;
 5               	20.43       	0           	3               	;
 6               	10.5        	0           	3               	;
 7               	9.95        	0           	3               	;
 8               	10.17       	0           	3               	;
 9               	3.95        	0           	3               	;
 10              	7.14        	0           	3               	;
 11              	7.56        	0           	3               	;
 12              	2.55        	0           	3               	;
 13              	3.78        	0           	3               	;
 D18             	7.56        	200         	1               	;
 D21             	9.95        	206         	1               	;
 D17B            	3.04        	101         	1               	;
 D17A            	3.45        	91          	1               	;
 D16             	3           	115         	1               	;
 1               	10.5        	0           	3               	;
 2               	3.95        	0           	3               	;
 3               	7.56        	0           	3               	;

[RESERVOIRS]
;ID              	Head        	Pattern         
 14              	100         	                	;

[TANKS]
;ID              	Elevation   	InitLevel   	MinLevel    	MaxLevel    	Diameter    	MinVol      	VolCurve
 Alto_do_ceu     	52          	1.5         	0           	6           	65.15       	0           	                	;

[PIPES]
;ID              	Node1           	Node2           	Length      	Diameter    	Roughness   	MinorLoss   	Status
 1               	Alto_do_ceu     	DEODATO         	18.93       	300         	75          	0           	Open  	;
 2               	Alto_do_ceu     	ALTO_JOSE_BONIFACIO	21          	250         	80          	0           	Open  	;
 3               	Alto_do_ceu     	4               	12.78       	800         	75          	0           	Open  	;
 4               	4               	5               	487.22      	800         	75          	0           	Open  	;
 5               	5               	6               	500         	800         	90          	0           	Open  	;
 7               	7               	8               	500         	800         	80          	0           	Open  	;
 11              	12              	13              	600         	800         	90          	0           	Open  	;
 13              	9               	10              	342.4       	900         	80          	0           	Closed	;
 6               	1               	7               	92.3        	800         	90          	0           	Open  	;
 8               	8               	9               	518.79      	800         	90          	0           	Open  	;
 19              	2               	11              	241.41      	800         	90          	0           	Open  	;
 21              	3               	12              	340         	900         	90          	0           	Open  	;
 10              	14              	Alto_do_ceu     	18800       	1000        	90          	0           	Open  	;

[PUMPS]
;ID              	Node1           	Node2           	Parameters

[VALVES]
;ID              	Node1           	Node2           	Diameter    	Type	Setting     	MinorLoss   
 12              	7               	D21             	250         	PRV 	0           	10          	;
 14              	11              	D18             	250         	PRV 	0           	10          	;
 15              	12              	D17B            	250         	PRV 	0           	10          	;
 16              	12              	D17A            	300         	PRV 	0           	10          	;
 17              	6               	1               	400         	TCV 	0           	1.5         	;
 18              	9               	2               	800         	TCV 	0           	1.5         	;
 20              	11              	3               	900         	TCV 	0           	1.5         	;
 9               	13              	D16             	400         	PRV 	0           	10          	;

[TAGS]

[DEMANDS]
;Junction        	Demand      	Pattern         	Category

[STATUS]
;ID              	Status/Setting
 12              	Open
 14              	Open
 15              	Open
 16              	Open
 17              	Open
 18              	Open
 20              	Open
 9               	Open

[PATTERNS]
;ID              	Multipliers
;
 1               	0.900000    	0.880000    	0.860000    	0.860000    	0.860000    	0.860000    
 1               	0.900000    	0.980000    	1.040000    	1.100000    	1.140000    	1.140000    
 1               	1.080000    	1.080000    	1.120000    	1.120000    	1.080000    	1.020000    
 1               	1.020000    	1.040000    	1.040000    	0.980000    	0.960000    	0.940000    
;
 2               	0.200000    	0.200000    	0.200000    	0.200000    	0.600000    	0.800000    
 2               	1.400000    	1.400000    	1.400000    	1.400000    	1.400000    	1.400000    
 2               	1.400000    	1.400000    	1.400000    	1.400000    	1.400000    	1.400000    
 2               	1.400000    	1.200000    	1.000000    	0.800000    	0.400000    	0.200000    
;
 3               	1.000000    	1.000000    	1.000000    	1.000000    	1.000000    	1.000000    
 3               	1.000000    	1.000000    	1.000000    	1.000000    	1.000000    	1.000000    
 3               	1.000000    	1.000000    	1.000000    	1.000000    	1.000000    	1.000000    
 3               	1.000000    	1.000000    	1.000000    	1.000000    	1.000000    	1.000000    

[CURVES]
;ID              	X-Value     	Y-Value

[CONTROLS]


[RULES]


[ENERGY]
 Global Efficiency  	75.0000
 Global Price       	0.0000
 Demand Charge      	0.0000

[EMITTERS]
;Junction        	Coefficient

[QUALITY]
;Node            	InitQual

[SOURCES]
;Node            	Type        	Quality     	Pattern

[REACTIONS]
;Type     	Pipe/Tank       	Coefficient


[REACTIONS]
 Order Bulk            	1
 Order Tank            	1
 Order Wall            	1
 Global Bulk           	0.0000
 Global Wall           	0.0000
 Limiting Potential    	0.0000
 Roughness Correlation 	0.0000

[MIXING]
;Tank            	Model

[TIMES]
 Duration           	24:00 
 Hydraulic Timestep 	1:00 
 Quality Timestep   	0:05 
 Pattern Timestep   	1:00 
 Pattern Start      	0:00 
 Report Timestep    	1:00 
 Report Start       	0:00 
 Start ClockTime    	00:00:00 AM
 Statistic          	NONE

[REPORT]
 Status             	No
 Summary            	No
 Page               	0

[OPTIONS]
 Units              	LPS
 Headloss           	H-W
 Specific Gravity   	1
 Viscosity          	1
 Trials             	40
 Accuracy           	0.001
 CHECKFREQ          	10
 MAXCHECK           	10
 DAMPLIMIT          	0
 Unbalanced         	Continue 10
 Pattern            	1
 Demand Multiplier  	1
 Emitter Exponent   	0.5
 Quality            	NONE mg/L
 Diffusivity        	1
 Tolerance          	0.01

[COORDINATES]
;Node            	X-Coord         	Y-Coord
 DEODATO         	-1997.04        	8875.74         
 ALTO_JOSE_BONIFACIO	-2115.39        	8121.30         
 4               	-1257.40        	7618.34         
 5               	-1286.98        	6553.25         
 6               	-1286.98        	5532.54         
 7               	-1257.40        	4600.59         
 8               	-1227.81        	3727.81         
 9               	-1242.60        	2736.69         
 10              	-2396.45        	2677.52         
 11              	-1227.81        	1834.32         
 12              	-1213.02        	991.12          
 13              	-1183.43        	221.89          
 D18             	-179.70         	1833.53         
 D21             	-475.56         	4614.60         
 D17B            	-421.41         	1047.84         
 D17A            	-2050.11        	1025.06         
 D16             	-466.97         	284.74          
 1               	-615.03         	5113.90         
 2               	-592.26         	2266.52         
 3               	-1640.09        	1492.03         
 14              	353.08          	8747.15         
 Alto_do_ceu     	-1198.23        	8357.99         

[VERTICES]
;Link            	X-Coord         	Y-Coord
 10              	-1173.12        	8405.47         
 9               	-421.41         	296.13          

[LABELS]
;X-Coord           Y-Coord          Label & Anchor Node

[BACKDROP]
 DIMENSIONS     	0.00            	0.00            	10000.00        	10000.00        
 UNITS          	None
 FILE           	
 OFFSET         	0.00            	0.00            

[END]
